data_image0
_chemical_formula_structural       Sn8Ge20Na16O64
_chemical_formula_sum              "Sn8 Ge20 Na16 O64"
_cell_length_a       7.08609
_cell_length_b       11.6048
_cell_length_c       19.0208
_cell_angle_alpha    90
_cell_angle_beta     90
_cell_angle_gamma    90

_space_group_name_H-M_alt    "P 1"
_space_group_IT_number       1

loop_
  _space_group_symop_operation_xyz
  'x, y, z'

loop_
  _atom_site_type_symbol
  _atom_site_label
  _atom_site_symmetry_multiplicity
  _atom_site_fract_x
  _atom_site_fract_y
  _atom_site_fract_z
  _atom_site_occupancy
  Sn  Sn1       1.0  0.20837  0.55908  0.39395  1.0000
  Sn  Sn2       1.0  0.79163  0.44092  0.60605  1.0000
  Sn  Sn3       1.0  0.29163  0.94092  0.89395  1.0000
  Sn  Sn4       1.0  0.70837  0.05908  0.10605  1.0000
  Sn  Sn5       1.0  0.79163  0.55908  0.10605  1.0000
  Sn  Sn6       1.0  0.20837  0.44092  0.89395  1.0000
  Sn  Sn7       1.0  0.70837  0.94092  0.60605  1.0000
  Sn  Sn8       1.0  0.29163  0.05908  0.39395  1.0000
  Ge  Ge1       1.0  0.64928  0.50745  0.43152  1.0000
  Ge  Ge2       1.0  0.35072  0.49255  0.56848  1.0000
  Ge  Ge3       1.0  0.85072  0.99255  0.93152  1.0000
  Ge  Ge4       1.0  0.14928  0.00745  0.06848  1.0000
  Ge  Ge5       1.0  0.35072  0.50745  0.06848  1.0000
  Ge  Ge6       1.0  0.64928  0.49255  0.93152  1.0000
  Ge  Ge7       1.0  0.14928  0.99255  0.56848  1.0000
  Ge  Ge8       1.0  0.85072  0.00745  0.43152  1.0000
  Ge  Ge9       1.0  0.50000  0.19271  0.25000  1.0000
  Ge  Ge10      1.0  0.50000  0.80729  0.75000  1.0000
  Ge  Ge11      1.0  0.00000  0.30729  0.75000  1.0000
  Ge  Ge12      1.0  0.00000  0.69271  0.25000  1.0000
  Ge  Ge13      1.0  0.49596  0.33064  0.38727  1.0000
  Ge  Ge14      1.0  0.50404  0.66936  0.61273  1.0000
  Ge  Ge15      1.0  0.00404  0.16936  0.88727  1.0000
  Ge  Ge16      1.0  0.99596  0.83064  0.11273  1.0000
  Ge  Ge17      1.0  0.50404  0.33064  0.11273  1.0000
  Ge  Ge18      1.0  0.49596  0.66936  0.88727  1.0000
  Ge  Ge19      1.0  0.99596  0.16936  0.61273  1.0000
  Ge  Ge20      1.0  0.00404  0.83064  0.38727  1.0000
  Na  Na1       1.0  0.55041  0.19331  0.54665  1.0000
  Na  Na2       1.0  0.44959  0.80669  0.45335  1.0000
  Na  Na3       1.0  0.94959  0.30669  0.04665  1.0000
  Na  Na4       1.0  0.05041  0.69331  0.95335  1.0000
  Na  Na5       1.0  0.44959  0.19331  0.95335  1.0000
  Na  Na6       1.0  0.55041  0.80669  0.04665  1.0000
  Na  Na7       1.0  0.05041  0.30669  0.45335  1.0000
  Na  Na8       1.0  0.94959  0.69331  0.54665  1.0000
  Na  Na9       1.0  0.00000  0.01448  0.25000  1.0000
  Na  Na10      1.0  0.00000  0.98552  0.75000  1.0000
  Na  Na11      1.0  0.50000  0.48552  0.75000  1.0000
  Na  Na12      1.0  0.50000  0.51448  0.25000  1.0000
  Na  Na13      1.0  0.00000  0.38524  0.25000  1.0000
  Na  Na14      1.0  0.00000  0.61476  0.75000  1.0000
  Na  Na15      1.0  0.50000  0.11476  0.75000  1.0000
  Na  Na16      1.0  0.50000  0.88524  0.25000  1.0000
  O   O1        1.0  0.97417  0.45382  0.36786  1.0000
  O   O2        1.0  0.02583  0.54618  0.63214  1.0000
  O   O3        1.0  0.52583  0.04618  0.86786  1.0000
  O   O4        1.0  0.47417  0.95382  0.13214  1.0000
  O   O5        1.0  0.02583  0.45382  0.13214  1.0000
  O   O6        1.0  0.97417  0.54618  0.86786  1.0000
  O   O7        1.0  0.47417  0.04618  0.63214  1.0000
  O   O8        1.0  0.52583  0.95382  0.36786  1.0000
  O   O9        1.0  0.78157  0.52894  0.50949  1.0000
  O   O10       1.0  0.21843  0.47106  0.49051  1.0000
  O   O11       1.0  0.71843  0.97106  0.00949  1.0000
  O   O12       1.0  0.28157  0.02894  0.99051  1.0000
  O   O13       1.0  0.21843  0.52894  0.99051  1.0000
  O   O14       1.0  0.78157  0.47106  0.00949  1.0000
  O   O15       1.0  0.28157  0.97106  0.49051  1.0000
  O   O16       1.0  0.71843  0.02894  0.50949  1.0000
  O   O17       1.0  0.48100  0.61969  0.41242  1.0000
  O   O18       1.0  0.51900  0.38031  0.58758  1.0000
  O   O19       1.0  0.01900  0.88031  0.91242  1.0000
  O   O20       1.0  0.98100  0.11969  0.08758  1.0000
  O   O21       1.0  0.51900  0.61969  0.08758  1.0000
  O   O22       1.0  0.48100  0.38031  0.91242  1.0000
  O   O23       1.0  0.98100  0.88031  0.58758  1.0000
  O   O24       1.0  0.01900  0.11969  0.41242  1.0000
  O   O25       1.0  0.81074  0.53091  0.35631  1.0000
  O   O26       1.0  0.18926  0.46909  0.64369  1.0000
  O   O27       1.0  0.68926  0.96909  0.85631  1.0000
  O   O28       1.0  0.31074  0.03091  0.14369  1.0000
  O   O29       1.0  0.18926  0.53091  0.14369  1.0000
  O   O30       1.0  0.81074  0.46909  0.85631  1.0000
  O   O31       1.0  0.31074  0.96909  0.64369  1.0000
  O   O32       1.0  0.68926  0.03091  0.35631  1.0000
  O   O33       1.0  0.40053  0.21158  0.43705  1.0000
  O   O34       1.0  0.59947  0.78842  0.56295  1.0000
  O   O35       1.0  0.09947  0.28842  0.93705  1.0000
  O   O36       1.0  0.90053  0.71158  0.06295  1.0000
  O   O37       1.0  0.59947  0.21158  0.06295  1.0000
  O   O38       1.0  0.40053  0.78842  0.93705  1.0000
  O   O39       1.0  0.90053  0.28842  0.56295  1.0000
  O   O40       1.0  0.09947  0.71158  0.43705  1.0000
  O   O41       1.0  0.31387  0.41188  0.34395  1.0000
  O   O42       1.0  0.68613  0.58812  0.65605  1.0000
  O   O43       1.0  0.18613  0.08812  0.84395  1.0000
  O   O44       1.0  0.81387  0.91188  0.15605  1.0000
  O   O45       1.0  0.68613  0.41188  0.15605  1.0000
  O   O46       1.0  0.31387  0.58812  0.84395  1.0000
  O   O47       1.0  0.81387  0.08812  0.65605  1.0000
  O   O48       1.0  0.18613  0.91188  0.34395  1.0000
  O   O49       1.0  0.62801  0.28191  0.31140  1.0000
  O   O50       1.0  0.37199  0.71809  0.68860  1.0000
  O   O51       1.0  0.87199  0.21809  0.81140  1.0000
  O   O52       1.0  0.12801  0.78191  0.18860  1.0000
  O   O53       1.0  0.37199  0.28191  0.18860  1.0000
  O   O54       1.0  0.62801  0.71809  0.81140  1.0000
  O   O55       1.0  0.12801  0.21809  0.68860  1.0000
  O   O56       1.0  0.87199  0.78191  0.31140  1.0000
  O   O57       1.0  0.30992  0.12052  0.29123  1.0000
  O   O58       1.0  0.69008  0.87948  0.70877  1.0000
  O   O59       1.0  0.19008  0.37948  0.79123  1.0000
  O   O60       1.0  0.80992  0.62052  0.20877  1.0000
  O   O61       1.0  0.69008  0.12052  0.20877  1.0000
  O   O62       1.0  0.30992  0.87948  0.79123  1.0000
  O   O63       1.0  0.80992  0.37948  0.70877  1.0000
  O   O64       1.0  0.19008  0.62052  0.29123  1.0000
